<?xml version="1.0" encoding="UTF-8"?>

<!-- generated on Tue Jan 28 23:09:36 2014 by SUMO polyconvert Version 0.19.0
<?xml version="1.0" encoding="UTF-8"?>

<configuration xmlns:xsi="http://www.w3.org/2001/XMLSchema-instance" xsi:noNamespaceSchemaLocation="http://sumo-sim.org/xsd/polyconvertConfiguration.xsd">

    <input>
        <net-file value="KarradaIn.net.xml"/>
        <osm-files value="KarradaIn.osm"/>
        <type-file value="typemap.xml"/>
    </input>

    <output>
        <output-file value="KarradaIn.poly.xml"/>
    </output>

</configuration>
-->

<shapes>
    <poly id="223455896" type="boundary.administrative" color="128,0,51" fill="0" layer="-12.00" shape="5098.87,2469.91 4998.54,2348.85 3314.18,1580.93"/>
    <poly id="223462612" type="boundary.administrative" color="128,0,51" fill="0" layer="-12.00" shape="3314.18,1580.93 -83.15,33.12"/>
    <poly id="223462613" type="boundary.administrative" color="128,0,51" fill="0" layer="-12.00" shape="2082.59,3114.52 2589.67,1979.15 3314.18,1580.93"/>
    <poly id="223462617" type="boundary.administrative" color="128,0,51" fill="0" layer="-12.00" shape="3314.18,1580.93 4434.94,986.32 4668.81,700.29"/>
    <poly id="4245878" type="residential" color="235,235,227" fill="1" layer="-11.00" shape="2999.93,1773.43 2812.75,2253.63 2542.49,2147.73 2396.32,2448.76 2903.27,2738.25 2990.73,2658.25 3004.38,2598.54 3090.44,2627.89 3701.47,1839.26 3683.16,1777.72 3354.75,1630.35 3256.90,1638.82 2999.93,1773.43"/>
    <poly id="4245881" type="residential" color="235,235,227" fill="1" layer="-11.00" shape="3143.67,2720.88 3030.86,2864.26 3190.88,3047.36 4576.09,2183.06 4295.45,2050.78 4258.98,2069.34 4218.09,2066.26 4190.44,2026.78 4184.04,1990.76 3827.72,1841.21 3737.95,1869.42 3106.89,2667.12 3143.67,2720.88"/>
    <poly id="4245883" type="residential" color="235,235,227" fill="1" layer="-11.00" shape="3238.62,1583.25 3238.52,1563.36 2853.97,1382.51 2806.08,1392.71 2802.20,1414.60 2896.70,1525.45 2775.33,1617.57 2911.99,1765.96 3238.62,1583.25"/>
    <poly id="4256013" type="industrial" color="209,209,204" fill="1" layer="-11.00" shape="3904.44,741.48 3575.98,776.53 3608.27,838.01 3780.86,984.23 3663.76,1128.04 3827.50,1265.67 4407.93,935.18 4609.48,710.99 4401.79,527.57 4251.94,379.34 3940.41,553.86 3833.20,605.09 3904.44,741.48"/>
    <poly id="4256016" type="industrial" color="209,209,204" fill="1" layer="-11.00" shape="3560.38,1223.54 3581.99,1153.82 3463.80,1094.80 3407.00,1307.87 3579.21,1380.52 3734.65,1308.11 3560.38,1223.54"/>
    <poly id="4256029" type="residential" color="235,235,227" fill="1" layer="-11.00" shape="3088.13,711.05 2851.59,1302.91 2871.32,1340.52 3258.30,1517.45 3300.14,1497.34 3515.49,674.95 3273.99,721.97 3144.01,698.81 3088.13,711.05"/>
    <poly id="4258428" type="residential" color="235,235,227" fill="1" layer="-11.00" shape="4239.56,1947.35 4282.42,1740.34 3962.99,1590.96 3837.96,1743.70 3855.23,1800.27 4203.64,1953.51 4239.56,1947.35"/>
    <poly id="4258429" type="residential" color="235,235,227" fill="1" layer="-11.00" shape="3916.95,1581.22 3615.52,1428.80 3376.52,1560.24 3384.61,1584.07 3716.98,1736.35 3806.82,1716.01 3916.95,1581.22"/>
    <poly id="4258430" type="industrial" color="209,209,204" fill="1" layer="-11.00" shape="4320.85,1076.01 4285.76,1048.43 3625.50,1416.77 3931.85,1563.23 4320.85,1076.01"/>
    <poly id="4258431" type="industrial" color="209,209,204" fill="1" layer="-11.00" shape="4287.05,1722.34 4392.19,1134.75 4343.34,1098.45 3970.55,1578.74 4287.05,1722.34"/>
    <poly id="4258433" type="industrial" color="209,209,204" fill="1" layer="-11.00" shape="4458.64,958.26 4274.17,1955.37 4288.67,1963.51 5148.80,1410.75 4516.39,886.62 4458.64,958.26"/>
    <poly id="4258434" type="industrial" color="209,209,204" fill="1" layer="-11.00" shape="4677.33,2163.77 4678.66,2192.01 4985.68,2341.04 5061.59,2386.54 5508.23,2099.44 5538.79,2062.80 5444.98,1986.78 5417.95,2017.52 5148.83,2108.35 4982.60,1977.41 4677.33,2163.77"/>
    <poly id="4258435" type="industrial" color="209,209,204" fill="1" layer="-11.00" shape="5179.66,1442.06 4687.01,1754.16 4931.68,1961.20 5292.48,1535.63 5179.66,1442.06"/>
    <poly id="4258436" type="residential" color="235,235,227" fill="1" layer="-11.00" shape="4645.34,2149.81 4915.16,1968.35 4677.62,1767.16 4308.70,1991.52 4307.65,2017.42 4594.53,2157.14 4645.34,2149.81"/>
    <poly id="4258437" type="residential" color="235,235,227" fill="1" layer="-11.00" shape="5625.88,1922.34 5782.44,1658.17 5468.38,1398.68 5332.86,1559.73 5311.74,1540.56 4978.28,1941.53 4983.09,1956.81 5154.04,2088.91 5397.66,2006.08 5441.02,1967.56 5455.53,1977.45 5625.88,1922.34"/>
    <poly id="4331469" type="residential" color="235,235,227" fill="1" layer="-11.00" shape="4432.30,2525.36 4512.93,2472.25 4440.40,2355.33 4410.34,2338.59 4186.31,2469.00 4343.45,2720.67 4495.76,2627.43 4432.30,2525.36"/>
    <poi id="1345316495" type="amenity" color="237,199,199" layer="2.00" x="3804.40" y="1860.13"/>
    <poi id="1345316499" type="amenity" color="237,199,199" layer="2.00" x="3835.29" y="1847.05"/>
    <poi id="2482531682" type="unknown" color="51,128,255" layer="-1.00" x="3767.05" y="2166.43"/>
    <poi id="2482531749" type="unknown" color="51,128,255" layer="-1.00" x="3213.21" y="2065.31"/>
    <poi id="2482531754" type="unknown" color="51,128,255" layer="-1.00" x="5054.61" y="1644.02"/>
    <poi id="2482531763" type="unknown" color="51,128,255" layer="-1.00" x="3295.70" y="1582.25"/>
    <poi id="24969285" type="amenity" color="237,199,199" layer="2.00" x="4797.22" y="2341.54"/>
    <poi id="510431858" type="amenity" color="237,199,199" layer="2.00" x="3416.02" y="1652.53"/>
</shapes>
